         MACRO                                                          00000100
&NAME    HALOUT &RC=0                                                   00000200
&NAME    L     13,ARG0        CALLER'S OS SAVE AREA                     00000300
         RETURN (14,12),RC=&RC                                          00000400
         MEND                                                           00000500
